         54
  Built with Packmol
  C            1.295925       -1.400935        2.852816
  C            0.822125       -1.574784        1.600445
  O            1.801501       -2.109889        0.798839
  C            2.917670       -2.271027        1.586031
  C            2.658847       -1.853987        2.842594
  C            4.117839       -2.822583        0.998609
  O            4.280472       -3.176487       -0.139119
  O            5.095020       -2.897249        1.939481
  H            5.914010       -3.263427        1.577296
  H           -0.115538       -1.386711        1.138926
  H            0.762444       -1.005267        3.684371
  H            3.346934       -1.867487        3.653227
  C           -4.644453        2.369262        2.670724
  C           -3.301213        2.347368        2.806261
  O           -2.810587        1.124631        2.416023
  C           -3.890418        0.367197        2.026498
  C           -5.026850        1.081062        2.163546
  C           -3.669741       -0.983503        1.561103
  O           -2.620143       -1.562277        1.463684
  O           -4.857669       -1.552482        1.228254
  H           -4.744343       -2.459732        0.911927
  H           -2.586599        3.058385        3.139976
  H           -5.292268        3.183003        2.896115
  H           -6.006068        0.735808        1.933979
  C            1.217483       -5.148838       -0.552295
  O            0.688637       -4.003795       -0.216574
  O            0.789455       -5.779798       -1.611628
  O            2.174357       -5.662922        0.171318
  C           -3.006434        2.394203       -0.797002
  O           -2.882826        1.145551       -0.437699
  O           -4.175970        2.862331       -1.138391
  O           -1.960506        3.174727       -0.814916
  C           -1.879287       -1.770543        5.478287
  O           -1.822851       -3.035558        5.161961
  O           -1.313157       -1.346231        6.575082
  O           -2.501854       -0.929839        4.697816
  Cs           6.449138       -0.191522        2.689840
  Cs          -2.100300       -3.164742       -0.387834
  Cs           3.739550       -1.047255       -3.728192
  Cs           3.274766        1.214246        0.822961
  Cs           0.400530       -5.222462       -4.643862
  Cs          -0.705619       -2.808756        3.014566
  C           -0.227315        1.376935        1.285130
  O           -0.020809        2.096806        0.175087
  O           -0.433820        0.657065        2.395174
  C            5.047584       -0.145002       -0.713492
  O            5.530141       -1.052724        0.144550
  O            4.565027        0.762719       -1.571534
  C            3.560356        2.066650        4.662855
  O            2.282392        2.452199        4.556950
  O            4.838320        1.681102        4.768760
  C            5.120902        3.738418        0.156249
  O            5.314394        4.434358       -0.971263
  O            4.927409        3.042477        1.283760